<?xml version="1.0" encoding="UTF-8"?>
<routes xmlns:xsi="http://www.w3.org/2001/XMLSchema-instance" xsi:noNamespaceSchemaLocation="http://sumo.dlr.de/xsd/routes_file.xsd">
    <!-- Emergency vehicles with proper routes -->
    
    <!-- Firetruck route - modified to avoid teleporting -->
    <route id="emergency_route_1" edges="edge_start_1 edge_middle_1 edge_end_1"/> 
    <route id="emergency_route_2" edges="edge_start_2 edge_middle_2 edge_end_2"/>
    <route id="emergency_route_3" edges="edge_start_3 edge_middle_3 edge_end_3"/>
    <!-- Add a new route starting from a different location -->
    <route id="emergency_route_4" edges="edge_start_4 edge_middle_4 edge_end_4"/> 
    
    <!-- Define emergency vehicles -->
    <!-- Assign the new route to firetruck_1 -->
    <vehicle id="firetruck_1" type="firetruck" route="emergency_route_4" depart="100" departLane="best" departSpeed="max" color="1,0,0">
        <param key="has.bluelight.device" value="true"/>
        <param key="device.rerouting.period" value="10"/>
        <param key="junctionModel.ignoreIDs" value="true"/>
        <param key="has.emergency.vehicle.priority" value="2"/>
    </vehicle>
    
    <vehicle id="ambulance_1" type="ambulance" route="emergency_route_2" depart="200" departLane="best" departSpeed="max" color="1,1,1">
        <param key="has.bluelight.device" value="true"/>
        <param key="device.rerouting.period" value="10"/>
        <param key="junctionModel.ignoreIDs" value="true"/>
        <param key="has.emergency.vehicle.priority" value="1"/>
    </vehicle>
    
    <vehicle id="police_1" type="police" route="emergency_route_3" depart="300" departLane="best" departSpeed="max" color="0,0,1">
        <param key="has.bluelight.device" value="true"/>
        <param key="device.rerouting.period" value="10"/>
        <param key="junctionModel.ignoreIDs" value="true"/>
        <param key="has.emergency.vehicle.priority" value="3"/>
    </vehicle>

    <!-- To add more, copy a block and change the id and depart time -->
    <!-- Additional vehicles with different depart times -->
    
    <vehicle id="ambulance_2" type="ambulance" route="emergency_route_2" depart="400" departLane="best" departSpeed="max" color="1,1,1">
        <param key="has.bluelight.device" value="true"/>
        <param key="device.rerouting.period" value="10"/>
        <param key="junctionModel.ignoreIDs" value="true"/>
        <param key="has.emergency.vehicle.priority" value="1"/>
    </vehicle>
    
    <vehicle id="firetruck_2" type="firetruck" route="emergency_route_3" depart="500" departLane="best" departSpeed="max" color="1,0,0">
        <param key="has.bluelight.device" value="true"/>
        <param key="device.rerouting.period" value="10"/>
        <param key="junctionModel.ignoreIDs" value="true"/>
        <param key="has.emergency.vehicle.priority" value="2"/>
    </vehicle>
    
    <vehicle id="police_2" type="police" route="emergency_route_1" depart="600" departLane="best" departSpeed="max" color="0,0,1">
        <param key="has.bluelight.device" value="true"/>
        <param key="device.rerouting.period" value="10"/>
        <param key="junctionModel.ignoreIDs" value="true"/>
        <param key="has.emergency.vehicle.priority" value="3"/>
    </vehicle>
    
    <!-- Normal vehicles should use normal_car type instead of veh_passenger -->
    <vehicle id="normal_1" type="normal_car" route="emergency_route_1" depart="50" departLane="best" departSpeed="max" color="1,1,0">
        <param key="has.emergency.vehicle.priority" value="0"/>
    </vehicle>
    
    <vehicle id="normal_2" type="normal_car" route="emergency_route_2" depart="150" departLane="best" departSpeed="max" color="1,1,0">
        <param key="has.emergency.vehicle.priority" value="0"/>
    </vehicle>
    
    <!-- Additional emergency vehicles -->
    <vehicle id="ambulance_3" type="ambulance" route="emergency_route_3" depart="700" departLane="best" departSpeed="max" color="1,1,1">
        <param key="has.bluelight.device" value="true"/>
        <param key="device.rerouting.period" value="10"/>
        <param key="junctionModel.ignoreIDs" value="true"/>
        <param key="has.emergency.vehicle.priority" value="1"/>
    </vehicle>
    
    <vehicle id="firetruck_3" type="firetruck" route="emergency_route_2" depart="800" departLane="best" departSpeed="max" color="1,0,0">
        <param key="has.bluelight.device" value="true"/>
        <param key="device.rerouting.period" value="10"/>
        <param key="junctionModel.ignoreIDs" value="true"/>
        <param key="has.emergency.vehicle.priority" value="2"/>
    </vehicle>
    
    <vehicle id="police_3" type="police" route="emergency_route_1" depart="900" departLane="best" departSpeed="max" color="0,0,1">
        <param key="has.bluelight.device" value="true"/>
        <param key="device.rerouting.period" value="10"/>
        <param key="junctionModel.ignoreIDs" value="true"/>
        <param key="has.emergency.vehicle.priority" value="3"/>
    </vehicle>
    
    <!-- Add more emergency vehicles with staggered departure times -->
    <vehicle id="ambulance_4" type="ambulance" route="emergency_route_1" depart="1000" departLane="best" departSpeed="max" color="1,1,1">
        <param key="has.bluelight.device" value="true"/>
        <param key="device.rerouting.period" value="10"/>
        <param key="junctionModel.ignoreIDs" value="true"/>
        <param key="has.emergency.vehicle.priority" value="1"/>
    </vehicle>
    
    <vehicle id="firetruck_4" type="firetruck" route="emergency_route_2" depart="1100" departLane="best" departSpeed="max" color="1,0,0">
        <param key="has.bluelight.device" value="true"/>
        <param key="device.rerouting.period" value="10"/>
        <param key="junctionModel.ignoreIDs" value="true"/>
        <param key="has.emergency.vehicle.priority" value="2"/>
    </vehicle>
    
    <vehicle id="police_4" type="police" route="emergency_route_3" depart="1200" departLane="best" departSpeed="max" color="0,0,1">
        <param key="has.bluelight.device" value="true"/>
        <param key="device.rerouting.period" value="10"/>
        <param key="junctionModel.ignoreIDs" value="true"/>
        <param key="has.emergency.vehicle.priority" value="3"/>
    </vehicle>
</routes>