<?xml version="1.0" encoding="UTF-8"?>
<routes xmlns:xsi="http://www.w3.org/2001/XMLSchema-instance" xsi:noNamespaceSchemaLocation="http://sumo.dlr.de/xsd/routes_file.xsd">
    <!-- Emergency vehicles with proper routes -->
    
    <!-- Firetruck route - modified to avoid teleporting -->
    <route id="emergency_route_1" edges="22851295 22853132#0 22853132#3 22853132#8 22853132#10 22853132#13"/>
    
    <!-- Ambulance route -->
    <route id="emergency_route_2" edges="48050559 22850934#0 22850934#4 22850934#9 22850934#10"/>
    
    <!-- Police route -->
    <route id="emergency_route_3" edges="22850814#0 22850814#3 22850814#6 22850814#9"/>
    
    <!-- Define emergency vehicles -->
    <vehicle id="firetruck_1" type="firetruck" route="emergency_route_1" depart="100" departLane="best" departSpeed="max">
        <param key="has.bluelight.device" value="true"/>
        <param key="device.rerouting.period" value="10"/>
    </vehicle>
    
    <vehicle id="ambulance_1" type="ambulance" route="emergency_route_2" depart="200" departLane="best" departSpeed="max">
        <param key="has.bluelight.device" value="true"/>
        <param key="device.rerouting.period" value="10"/>
    </vehicle>
    
    <vehicle id="police_1" type="police" route="emergency_route_3" depart="300" departLane="best" departSpeed="max">
        <param key="has.bluelight.device" value="true"/>
        <param key="device.rerouting.period" value="10"/>
    </vehicle>
    
    <!-- Additional vehicles with different depart times -->
    <vehicle id="ambulance_2" type="ambulance" route="emergency_route_2" depart="800" departLane="best" departSpeed="max">
        <param key="has.bluelight.device" value="true"/>
        <param key="device.rerouting.period" value="10"/>
    </vehicle>
    
    <vehicle id="firetruck_2" type="firetruck" route="emergency_route_3" depart="1200" departLane="best" departSpeed="max">
        <param key="has.bluelight.device" value="true"/>
        <param key="device.rerouting.period" value="10"/>
    </vehicle>
    
    <vehicle id="police_2" type="police" route="emergency_route_1" depart="1500" departLane="best" departSpeed="max">
        <param key="has.bluelight.device" value="true"/>
        <param key="device.rerouting.period" value="10"/>
    </vehicle>
</routes>