<?xml version="1.0" encoding="UTF-8"?>

<!-- generated on 2025-04-07 19:51:49.326368 by osmWebWizard.py v1_22_0+0002-63e50f52594
<configuration>
    <net-file value="C:\Users\rawat\2025-04-07-19-50-33\osm.net.xml.gz"/>
    <output-trip-file value="C:\Users\rawat\2025-04-07-19-50-33\osm.passenger.trips.xml"/>
    <route-file value="C:\Users\rawat\2025-04-07-19-50-33\osm.passenger.rou.xml"/>
    <prefix value="veh"/>
    <trip-attributes value="departLane=&quot;best&quot;"/>
    <fringe-start-attributes value="departSpeed=&quot;max&quot;"/>
    <vehicle-class value="passenger"/>
    <lanes value="True"/>
    <fringe-factor value="5"/>
    <allow-fringe.min-length value="1000.0"/>
    <via-edge-types value="highway.motorway,highway.motorway_link,highway.trunk_link,highway.primary_link,highway.secondary_link,highway.tertiary_link"/>
    <min-distance value="300.0"/>
    <min-distance.fringe value="10.0"/>
    <remove-loops value="True"/>
    <validate value="True"/>
    <insertion-density value="12.0"/>
</configuration>
-->

<!-- generated on 2025-04-07 19:51:47 by Eclipse SUMO duarouter Version 1.22.0
<duarouterConfiguration xmlns:xsi="http://www.w3.org/2001/XMLSchema-instance" xsi:noNamespaceSchemaLocation="http://sumo.dlr.de/xsd/duarouterConfiguration.xsd">

    <input>
        <net-file value="C:\Users\rawat\2025-04-07-19-50-33\osm.net.xml.gz"/>
        <route-files value="C:\Users\rawat\2025-04-07-19-50-33\osm.passenger.trips.xml"/>
    </input>

    <output>
        <output-file value="C:\Users\rawat\2025-04-07-19-50-33\osm.passenger.trips.xml.tmp"/>
        <alternatives-output value="NUL"/>
        <write-trips value="true"/>
    </output>

    <processing>
        <remove-loops value="true"/>
    </processing>

    <time>
        <begin value="0.0"/>
        <end value="3600.0"/>
    </time>

    <report>
        <no-warnings value="true"/>
        <ignore-errors value="true"/>
        <no-step-log value="true"/>
    </report>

</duarouterConfiguration>
-->

<routes xmlns:xsi="http://www.w3.org/2001/XMLSchema-instance" xsi:noNamespaceSchemaLocation="http://sumo.dlr.de/xsd/routes_file.xsd">
    <vType id="veh_passenger" vClass="passenger"/>
    <trip id="veh0" type="veh_passenger" depart="0.00" departLane="best" from="215039728#0" to="-1188796324#2"/>
    <trip id="veh1" type="veh_passenger" depart="1.14" departLane="best" from="-22853293#0" to="-22853555"/>
    <trip id="veh2" type="veh_passenger" depart="2.27" departLane="best" departSpeed="max" from="22852748#0" to="22852570#5"/>
    <trip id="veh3" type="veh_passenger" depart="3.41" departLane="best" departSpeed="max" from="48050559" to="-215039654#0"/>
    <trip id="veh4" type="veh_passenger" depart="4.54" departLane="best" from="935249341#7" to="-1190133777#0"/>
    <trip id="veh5" type="veh_passenger" depart="5.68" departLane="best" departSpeed="max" from="-22852318" to="1245529080#4"/>
    <trip id="veh6" type="veh_passenger" depart="6.81" departLane="best" departSpeed="max" from="-1187274538" to="-22853132#5"/>
    <trip id="veh7" type="veh_passenger" depart="7.95" departLane="best" from="215057884#0" to="152048094#3"/>
    <trip id="veh8" type="veh_passenger" depart="9.09" departLane="best" departSpeed="max" from="-22852360" to="215057884#2"/>
    <trip id="veh9" type="veh_passenger" depart="10.22" departLane="best" departSpeed="max" from="22853535" to="-1126715627#5"/>
    <trip id="veh10" type="veh_passenger" depart="11.36" departLane="best" from="22853516#1" to="22852986#2"/>
    <trip id="veh11" type="veh_passenger" depart="12.49" departLane="best" from="-48747607#2" to="-22852264"/>
    <trip id="veh12" type="veh_passenger" depart="13.63" departLane="best" departSpeed="max" from="658691829" to="1126715629#1"/>
    <trip id="veh13" type="veh_passenger" depart="14.76" departLane="best" from="-123854737#5" to="-215057830#1"/>
    <trip id="veh14" type="veh_passenger" depart="15.90" departLane="best" from="237025764#0" to="22850685"/>
    <trip id="veh15" type="veh_passenger" depart="17.04" departLane="best" from="22853523#0" to="22853274#0"/>
    <trip id="veh16" type="veh_passenger" depart="18.17" departLane="best" from="1212987321" to="789140995"/>
    <trip id="veh17" type="veh_passenger" depart="19.31" departLane="best" from="-72245644#7" to="207568661#1"/>
    <trip id="veh18" type="veh_passenger" depart="20.44" departLane="best" from="22853728#1" to="22850950#3"/>
    <trip id="veh19" type="veh_passenger" depart="21.58" departLane="best" from="22853813#2" to="215057804#3"/>
    <trip id="veh20" type="veh_passenger" depart="22.71" departLane="best" from="22852171#3" to="-123854737#1"/>
    <trip id="veh21" type="veh_passenger" depart="23.85" departLane="best" from="-22852449#1" to="72245644#3"/>
    <trip id="veh22" type="veh_passenger" depart="24.98" departLane="best" from="-1207066839#2" to="-38829687#2"/>
    <trip id="veh23" type="veh_passenger" depart="26.12" departLane="best" departSpeed="max" from="-1303074852" to="596409223#7"/>
    <trip id="veh24" type="veh_passenger" depart="27.26" departLane="best" departSpeed="max" from="214780312" to="1138671683#0"/>
    <trip id="veh25" type="veh_passenger" depart="28.39" departLane="best" from="-658691824#1" to="-22853292#6"/>
    <trip id="veh26" type="veh_passenger" depart="29.53" departLane="best" from="-22853166#1" to="72245644#10"/>
    <trip id="veh27" type="veh_passenger" depart="30.66" departLane="best" from="215057846#2" to="22850796#4"/>
    <trip id="veh28" type="veh_passenger" depart="31.80" departLane="best" from="-22850796#3" to="22853265#1"/>
    <trip id="veh29" type="veh_passenger" depart="32.93" departLane="best" from="-22850646#1" to="1171484639#4"/>
    <trip id="veh30" type="veh_passenger" depart="34.07" departLane="best" from="-787877206" to="22852086#7"/>
    <trip id="veh31" type="veh_passenger" depart="35.21" departLane="best" from="-123854737#5" to="22852736#2"/>
    <trip id="veh32" type="veh_passenger" depart="36.34" departLane="best" departSpeed="max" from="22854001#0" to="22853699#4"/>
    <trip id="veh33" type="veh_passenger" depart="37.48" departLane="best" from="22852570#2" to="-1190358449#3"/>
    <trip id="veh34" type="veh_passenger" depart="38.61" departLane="best" from="-424040131" to="48806119#0"/>
    <trip id="veh35" type="veh_passenger" depart="39.75" departLane="best" from="-22852254#1" to="72545843#1"/>
    <trip id="veh36" type="veh_passenger" depart="40.88" departLane="best" departSpeed="max" from="438388939" to="1075187585#2"/>
    <trip id="veh37" type="veh_passenger" depart="42.02" departLane="best" departSpeed="max" from="22850613" to="-1175026789#1"/>
    <trip id="veh38" type="veh_passenger" depart="43.16" departLane="best" from="48891306#1-AddedOnRampEdge" to="22853242#1"/>
    <trip id="veh39" type="veh_passenger" depart="44.29" departLane="best" from="-22853132#9" to="1105111950#11"/>
    <trip id="veh40" type="veh_passenger" depart="45.43" departLane="best" from="1238895021" to="-48748440#1"/>
    <trip id="veh41" type="veh_passenger" depart="46.56" departLane="best" departSpeed="max" from="1303042010" to="61652759#2-AddedOffRampEdge"/>
    <trip id="veh42" type="veh_passenger" depart="47.70" departLane="best" departSpeed="max" from="-788857076" to="-22853518#2"/>
    <trip id="veh43" type="veh_passenger" depart="48.83" departLane="best" from="935249341#3" to="1278096558"/>
    <trip id="veh44" type="veh_passenger" depart="49.97" departLane="best" from="-1341982354" to="-22851851#2"/>
    <trip id="veh45" type="veh_passenger" depart="51.11" departLane="best" from="-22853359#2" to="1188794400"/>
    <trip id="veh47" type="veh_passenger" depart="53.38" departLane="best" from="72531988#0" to="-48749225"/>
    <trip id="veh48" type="veh_passenger" depart="54.51" departLane="best" departSpeed="max" from="-1133441711" to="22853132#9"/>
    <trip id="veh49" type="veh_passenger" depart="55.65" departLane="best" from="22851066#1" to="1365963638#3"/>
    <trip id="veh50" type="veh_passenger" depart="56.78" departLane="best" from="-22853166#0" to="22852091"/>
    <trip id="veh51" type="veh_passenger" depart="57.92" departLane="best" from="-1352035753" to="1189375393"/>
    <trip id="veh52" type="veh_passenger" depart="59.05" departLane="best" from="1135128647#3" to="739701631#4"/>
    <trip id="veh53" type="veh_passenger" depart="60.19" departLane="best" from="431494597#0" to="-48749225"/>
    <trip id="veh54" type="veh_passenger" depart="61.33" departLane="best" from="1240758488#1" to="-22852973#1"/>
    <trip id="veh55" type="veh_passenger" depart="62.46" departLane="best" from="48891178#5" to="48806919#1"/>
    <trip id="veh56" type="veh_passenger" depart="63.60" departLane="best" from="-235877066#4" to="22852086#14"/>
    <trip id="veh57" type="veh_passenger" depart="64.73" departLane="best" from="1364910098#1" to="-22852244#3"/>
    <trip id="veh58" type="veh_passenger" depart="65.87" departLane="best" from="22853105#1" to="1374009636"/>
    <trip id="veh59" type="veh_passenger" depart="67.00" departLane="best" from="22853249#1" to="1171497218#1"/>
    <trip id="veh60" type="veh_passenger" depart="68.14" departLane="best" departSpeed="max" from="-1052982971" to="1105111950#12"/>
    <trip id="veh61" type="veh_passenger" depart="69.28" departLane="best" from="-1174930386#2" to="658691827#3"/>
    <trip id="veh62" type="veh_passenger" depart="70.41" departLane="best" departSpeed="max" from="438491418" to="438491420#1"/>
    <trip id="veh63" type="veh_passenger" depart="71.55" departLane="best" departSpeed="max" from="-40446700" to="-1328728773"/>
    <trip id="veh64" type="veh_passenger" depart="72.68" departLane="best" from="438489927" to="72545867#4"/>
    <trip id="veh65" type="veh_passenger" depart="73.82" departLane="best" departSpeed="max" from="-1212986591" to="123854740"/>
    <trip id="veh66" type="veh_passenger" depart="74.95" departLane="best" departSpeed="max" from="-1190303745" to="22853533#1"/>
    <trip id="veh67" type="veh_passenger" depart="76.09" departLane="best" from="-22853114#1" to="-22851214#0"/>
    <trip id="veh68" type="veh_passenger" depart="77.23" departLane="best" from="1138592095#8" to="-152322065#6"/>
    <trip id="veh69" type="veh_passenger" depart="78.36" departLane="best" from="-22853142#0" to="48809519#2"/>
    <trip id="veh70" type="veh_passenger" depart="79.50" departLane="best" departSpeed="max" from="-936596838" to="-22853358#0"/>
    <trip id="veh71" type="veh_passenger" depart="80.63" departLane="best" from="123299184" to="22853274#1"/>
    <trip id="veh72" type="veh_passenger" depart="81.77" departLane="best" from="22852157#2" to="1052982971"/>
    <trip id="veh73" type="veh_passenger" depart="82.90" departLane="best" from="89198554-AddedOnRampEdge" to="22852189#0"/>
    <trip id="veh74" type="veh_passenger" depart="84.04" departLane="best" departSpeed="max" from="1120576453" to="1303403582"/>
    <trip id="veh75" type="veh_passenger" depart="85.18" departLane="best" from="-152385151#2" to="-22853618#2"/>
    <trip id="veh76" type="veh_passenger" depart="86.31" departLane="best" departSpeed="max" from="-48052852#1" to="215057884#0"/>
    <trip id="veh77" type="veh_passenger" depart="87.45" departLane="best" departSpeed="max" from="-22852570#5" to="22853525#0"/>
    <trip id="veh78" type="veh_passenger" depart="88.58" departLane="best" from="1190358449#1" to="22851955#4"/>
    <trip id="veh79" type="veh_passenger" depart="89.72" departLane="best" from="22852570#2" to="618478002#3"/>
    <trip id="veh80" type="veh_passenger" depart="90.85" departLane="best" from="-39165005#3" to="151509168#0"/>
    <trip id="veh81" type="veh_passenger" depart="91.99" departLane="best" from="-22852843" to="22852361#0"/>
    <trip id="veh82" type="veh_passenger" depart="93.12" departLane="best" departSpeed="max" from="-22852276" to="-22851955#0"/>
    <trip id="veh84" type="veh_passenger" depart="95.40" departLane="best" from="1138265653" to="22853798#11"/>
    <trip id="veh85" type="veh_passenger" depart="96.53" departLane="best" from="22853523#1" to="-22853092#1"/>
    <trip id="veh86" type="veh_passenger" depart="97.67" departLane="best" departSpeed="max" from="-1285083441" to="1189134885"/>
    <trip id="veh87" type="veh_passenger" depart="98.80" departLane="best" departSpeed="max" from="-936596838" to="1235466415"/>
    <trip id="veh88" type="veh_passenger" depart="99.94" departLane="best" from="22852570#2" to="22852396#8"/>
    <trip id="veh89" type="veh_passenger" depart="101.07" departLane="best" from="753841885#7" to="-215057851#3"/>
    <trip id="veh90" type="veh_passenger" depart="102.21" departLane="best" from="-789768059" to="1132456614"/>
    <trip id="veh91" type="veh_passenger" depart="103.35" departLane="best" from="22853813#2" to="151509168#4"/>
    <trip id="veh92" type="veh_passenger" depart="104.48" departLane="best" from="-22852038#1" to="-1190358449#4"/>
    <trip id="veh93" type="veh_passenger" depart="105.62" departLane="best" from="935249341#7" to="-622411767"/>
    <trip id="veh94" type="veh_passenger" depart="106.75" departLane="best" departSpeed="max" from="-22853042" to="658691825#12"/>
    <trip id="veh95" type="veh_passenger" depart="107.89" departLane="best" from="1123865132" to="48749357#0"/>
    <trip id="veh96" type="veh_passenger" depart="109.02" departLane="best" from="1236032562#0" to="-1239092984#1"/>
    <trip id="veh97" type="veh_passenger" depart="110.16" departLane="best" from="939189109#1" to="453245474#2"/>
    <trip id="veh98" type="veh_passenger" depart="111.30" departLane="best" from="72456954#1" to="658691825#7"/>
    <trip id="veh99" type="veh_passenger" depart="112.43" departLane="best" from="260798793#0" to="-22852570#0"/>
    <trip id="veh100" type="veh_passenger" depart="113.57" departLane="best" from="1169864608#0" to="-22853359#11"/>
    <trip id="veh101" type="veh_passenger" depart="114.70" departLane="best" departSpeed="max" from="-789140996#1" to="-1328728773"/>
    <trip id="veh102" type="veh_passenger" depart="115.84" departLane="best" from="-72245644#9" to="792167903"/>
    <trip id="veh103" type="veh_passenger" depart="116.97" departLane="best" from="-22853142#0" to="22853798#0"/>
    <trip id="veh104" type="veh_passenger" depart="118.11" departLane="best" from="1135128647#5" to="1188794400"/>
    <trip id="veh105" type="veh_passenger" depart="119.25" departLane="best" departSpeed="max" from="658691829" to="935249341#6"/>
    <trip id="veh106" type="veh_passenger" depart="120.38" departLane="best" from="123854737#13" to="22853132#10"/>
    <trip id="veh107" type="veh_passenger" depart="121.52" departLane="best" from="-215057884#1" to="72552324"/>
    <trip id="veh108" type="veh_passenger" depart="122.65" departLane="best" from="72455856" to="215057812#0"/>
    <trip id="veh110" type="veh_passenger" depart="124.92" departLane="best" departSpeed="max" from="-1189375138" to="215057845"/>
    <trip id="veh111" type="veh_passenger" depart="126.06" departLane="best" from="1174243875#1" to="48052852#0"/>
    <trip id="veh112" type="veh_passenger" depart="127.20" departLane="best" departSpeed="max" from="-215372402" to="753841887"/>
    <trip id="veh113" type="veh_passenger" depart="128.33" departLane="best" departSpeed="max" from="1334197108" to="22852447#5"/>
    <trip id="veh114" type="veh_passenger" depart="129.47" departLane="best" from="-22852809" to="-22850983#0"/>
    <trip id="veh115" type="veh_passenger" depart="130.60" departLane="best" from="47978014#6" to="-438404687"/>
    <trip id="veh116" type="veh_passenger" depart="131.74" departLane="best" departSpeed="max" from="1334197108" to="22850987#2"/>
    <trip id="veh118" type="veh_passenger" depart="134.01" departLane="best" from="1190133777#1" to="72111981#3"/>
    <trip id="veh119" type="veh_passenger" depart="135.14" departLane="best" from="-22852189#1" to="22853125#1"/>
    <trip id="veh120" type="veh_passenger" depart="136.28" departLane="best" from="22852876#1" to="1177464841"/>
    <trip id="veh121" type="veh_passenger" depart="137.42" departLane="best" departSpeed="max" from="22850934#0" to="-786120412"/>
    <trip id="veh123" type="veh_passenger" depart="139.69" departLane="best" departSpeed="max" from="-1190363317#1" to="1207067072"/>
    <trip id="veh124" type="veh_passenger" depart="140.82" departLane="best" from="935249341#7" to="658691825#7"/>
    <trip id="veh125" type="veh_passenger" depart="141.96" departLane="best" departSpeed="max" from="-1190363318" to="-22853358#8"/>
    <trip id="veh126" type="veh_passenger" depart="143.09" departLane="best" from="-22853142#0" to="700077032"/>
    <trip id="veh127" type="veh_passenger" depart="144.23" departLane="best" from="658655417#9" to="-22852290"/>
    <trip id="veh128" type="veh_passenger" depart="145.37" departLane="best" from="22853798#3" to="22853044"/>
    <trip id="veh129" type="veh_passenger" depart="146.50" departLane="best" departSpeed="max" from="1367614684" to="792561895"/>
    <trip id="veh130" type="veh_passenger" depart="147.64" departLane="best" from="22853641#1" to="778337722#0"/>
    <trip id="veh131" type="veh_passenger" depart="148.77" departLane="best" from="22850796#0" to="72249179#1"/>
    <trip id="veh132" type="veh_passenger" depart="149.91" departLane="best" departSpeed="max" from="-215039671" to="-22850921#0"/>
    <trip id="veh133" type="veh_passenger" depart="151.04" departLane="best" from="-1338532721#1" to="207568662#4"/>
    <trip id="veh134" type="veh_passenger" depart="152.18" departLane="best" from="-22853275#3" to="22850718"/>
    <trip id="veh135" type="veh_passenger" depart="153.32" departLane="best" from="-22852278#2" to="1190566440#2"/>
    <trip id="veh136" type="veh_passenger" depart="154.45" departLane="best" from="214780306#1" to="48749357#1"/>
    <trip id="veh137" type="veh_passenger" depart="155.59" departLane="best" from="1171484639#1" to="618478002#3"/>
    <trip id="veh138" type="veh_passenger" depart="156.72" departLane="best" from="236184868#0" to="-215057753"/>
    <trip id="veh139" type="veh_passenger" depart="157.86" departLane="best" departSpeed="max" from="-936596838" to="596409223#0"/>
    <trip id="veh140" type="veh_passenger" depart="158.99" departLane="best" departSpeed="max" from="-1080431011" to="22853673#0"/>
    <trip id="veh141" type="veh_passenger" depart="160.13" departLane="best" from="215039658#2" to="-48747609#0"/>
    <trip id="veh142" type="veh_passenger" depart="161.27" departLane="best" from="22852832" to="207538308"/>
    <trip id="veh143" type="veh_passenger" depart="162.40" departLane="best" from="1075187585#10" to="-1138190217"/>
    <trip id="veh144" type="veh_passenger" depart="163.54" departLane="best" from="453245474#2" to="48891254#3"/>
    <trip id="veh145" type="veh_passenger" depart="164.67" departLane="best" departSpeed="max" from="48758356#0" to="152048094#6"/>
    <trip id="veh146" type="veh_passenger" depart="165.81" departLane="best" from="22853798#8" to="215057823"/>
    <trip id="veh147" type="veh_passenger" depart="166.94" departLane="best" departSpeed="max" from="-215057822#1" to="-22851124#1"/>
    <trip id="veh148" type="veh_passenger" depart="168.08" departLane="best" departSpeed="max" from="-40446700" to="618477983#2"/>
    <trip id="veh149" type="veh_passenger" depart="169.21" departLane="best" from="22853450#1" to="-48749225"/>
    <trip id="veh150" type="veh_passenger" depart="170.35" departLane="best" from="48747607#3" to="-22853296"/>
    <trip id="veh151" type="veh_passenger" depart="171.49" departLane="best" departSpeed="max" from="-22853042" to="22850731#1"/>
    <trip id="veh152" type="veh_passenger" depart="172.62" departLane="best" from="22853274#1" to="48891306#1-AddedOnRampEdge"/>
    <trip id="veh153" type="veh_passenger" depart="173.76" departLane="best" departSpeed="max" from="-792050004" to="22850988#1"/>
    <trip id="veh154" type="veh_passenger" depart="174.89" departLane="best" from="-215057884#0" to="658691827#3"/>
    <trip id="veh155" type="veh_passenger" depart="176.03" departLane="best" from="-40665618#0" to="789798555#0"/>
    <trip id="veh156" type="veh_passenger" depart="177.16" departLane="best" departSpeed="max" from="22853550#0" to="48891178#4"/>
    <trip id="veh157" type="veh_passenger" depart="178.30" departLane="best" departSpeed="max" from="-1187270699" to="22853323#2"/>
    <trip id="veh158" type="veh_passenger" depart="179.44" departLane="best" departSpeed="max" from="-48051365#1" to="697675940"/>
    <trip id="veh159" type="veh_passenger" depart="180.57" departLane="best" departSpeed="max" from="22853550#0" to="-48758357#0"/>
    <trip id="veh160" type="veh_passenger" depart="181.71" departLane="best" from="22853323#3" to="-22850723#0"/>
    <trip id="veh161" type="veh_passenger" depart="182.84" departLane="best" from="430223745#1" to="48747611"/>
    <trip id="veh162" type="veh_passenger" depart="183.98" departLane="best" from="-22852372#2" to="40665618#3"/>
    <trip id="veh163" type="veh_passenger" depart="185.11" departLane="best" from="22853398#2" to="22853728#1"/>
    <trip id="veh164" type="veh_passenger" depart="186.25" departLane="best" departSpeed="max" from="-1186675163" to="-22853110#0"/>
    <trip id="veh165" type="veh_passenger" depart="187.39" departLane="best" departSpeed="max" from="-47978068" to="48758357#1"/>
    <trip id="veh166" type="veh_passenger" depart="188.52" departLane="best" from="72249184#1" to="-658655417#3"/>
    <trip id="veh167" type="veh_passenger" depart="189.66" departLane="best" departSpeed="max" from="215057753" to="1180376489#2"/>
    <trip id="veh168" type="veh_passenger" depart="190.79" departLane="best" from="739701631#4" to="1365963638#2"/>
    <trip id="veh169" type="veh_passenger" depart="191.93" departLane="best" from="618477983#3" to="-22850921#0"/>
    <trip id="veh170" type="veh_passenger" depart="193.06" departLane="best" departSpeed="max" from="72531974" to="-22852973#1"/>
    <trip id="veh171" type="veh_passenger" depart="194.20" departLane="best" from="72111981#0" to="-48758356#0"/>
    <trip id="veh172" type="veh_passenger" depart="195.34" departLane="best" departSpeed="max" from="-1340242143" to="1189375393"/>
    <trip id="veh173" type="veh_passenger" depart="196.47" departLane="best" departSpeed="max" from="22852570#0" to="1053051875#1"/>
    <trip id="veh174" type="veh_passenger" depart="197.61" departLane="best" from="1347471107#0" to="1303024282"/>
    <trip id="veh175" type="veh_passenger" depart="198.74" departLane="best" departSpeed="max" from="-739701635#2" to="215057804#1"/>
    <trip id="veh176" type="veh_passenger" depart="199.88" departLane="best" from="-22853092#1" to="22853087#5"/>
    <trip id="veh177" type="veh_passenger" depart="201.01" departLane="best" from="-1078441679#1" to="658691825#5"/>
    <trip id="veh178" type="veh_passenger" depart="202.15" departLane="best" departSpeed="max" from="1231304028" to="22853132#16"/>
    <trip id="veh179" type="veh_passenger" depart="203.28" departLane="best" from="22852838" to="22852372#3"/>
    <trip id="veh180" type="veh_passenger" depart="204.42" departLane="best" departSpeed="max" from="-56197682" to="-1367614684"/>
    <trip id="veh181" type="veh_passenger" depart="205.56" departLane="best" from="22850796#4" to="1123862527#11"/>
    <trip id="veh182" type="veh_passenger" depart="206.69" departLane="best" from="22852294#1" to="22853699#5"/>
    <trip id="veh183" type="veh_passenger" depart="207.83" departLane="best" from="-40665618#1" to="1188580974"/>
    <trip id="veh184" type="veh_passenger" depart="208.96" departLane="best" from="-789768058" to="-72551775#1"/>
    <trip id="veh185" type="veh_passenger" depart="210.10" departLane="best" from="-214780295#1" to="1188792298"/>
    <trip id="veh186" type="veh_passenger" depart="211.23" departLane="best" from="618478002#3" to="22852570#5"/>
    <trip id="veh187" type="veh_passenger" depart="212.37" departLane="best" from="48754372#2" to="-22850911#4"/>
    <trip id="veh188" type="veh_passenger" depart="213.51" departLane="best" from="-38829687#1" to="-152322065#1"/>
    <trip id="veh189" type="veh_passenger" depart="214.64" departLane="best" departSpeed="max" from="-1052982971" to="-72111981#2"/>
    <trip id="veh190" type="veh_passenger" depart="215.78" departLane="best" from="1078441679#1" to="215057816#0"/>
    <trip id="veh191" type="veh_passenger" depart="216.91" departLane="best" from="-22850602#4" to="123299204"/>
    <trip id="veh192" type="veh_passenger" depart="218.05" departLane="best" from="207568669#13" to="22853359#10"/>
    <trip id="veh193" type="veh_passenger" depart="219.18" departLane="best" from="1138585346#2" to="618477990#0"/>
    <trip id="veh194" type="veh_passenger" depart="220.32" departLane="best" from="22853450#0" to="-22852767#0"/>
    <trip id="veh195" type="veh_passenger" depart="221.46" departLane="best" departSpeed="max" from="-1210904729#1" to="1303403582"/>
    <trip id="veh196" type="veh_passenger" depart="222.59" departLane="best" from="214780290" to="1126715628#0"/>
    <trip id="veh197" type="veh_passenger" depart="223.73" departLane="best" from="22853664#13" to="22853469"/>
    <trip id="veh198" type="veh_passenger" depart="224.86" departLane="best" from="22850934#3" to="-22853618#2"/>
    <trip id="veh199" type="veh_passenger" depart="226.00" departLane="best" from="22852144#1" to="48052292#3"/>
    <trip id="veh200" type="veh_passenger" depart="227.13" departLane="best" from="22852986#2" to="1236032547#3"/>
    <trip id="veh201" type="veh_passenger" depart="228.27" departLane="best" from="260798793#2" to="-152041566#0"/>
    <trip id="veh202" type="veh_passenger" depart="229.41" departLane="best" departSpeed="max" from="-792561897" to="22851900#2"/>
    <trip id="veh203" type="veh_passenger" depart="230.54" departLane="best" departSpeed="max" from="-22852083" to="22852973#1"/>
    <trip id="veh205" type="veh_passenger" depart="232.81" departLane="best" departSpeed="max" from="22853006" to="22853664#4"/>
    <trip id="veh206" type="veh_passenger" depart="233.95" departLane="best" from="-1334995150#1" to="1188869484"/>
    <trip id="veh207" type="veh_passenger" depart="235.08" departLane="best" from="-22850934#9" to="753815733"/>
    <trip id="veh208" type="veh_passenger" depart="236.22" departLane="best" from="1188796324#2" to="-123854748#1"/>
    <trip id="veh209" type="veh_passenger" depart="237.36" departLane="best" departSpeed="max" from="-22853042" to="48051825"/>
    <trip id="veh210" type="veh_passenger" depart="238.49" departLane="best" departSpeed="max" from="1136622918#0" to="288440379#0"/>
    <trip id="veh211" type="veh_passenger" depart="239.63" departLane="best" from="1177465443#3" to="792561897"/>
    <trip id="veh212" type="veh_passenger" depart="240.76" departLane="best" departSpeed="max" from="1334994643" to="72552324"/>
    <trip id="veh213" type="veh_passenger" depart="241.90" departLane="best" departSpeed="max" from="47982651#0" to="22850869#1"/>
    <trip id="veh214" type="veh_passenger" depart="243.03" departLane="best" from="22852290" to="1245529080#1"/>
    <trip id="veh215" type="veh_passenger" depart="244.17" departLane="best" from="22853753#2" to="-152322065#1"/>
    <trip id="veh216" type="veh_passenger" depart="245.30" departLane="best" from="-48052850#1" to="22853391#0"/>
    <trip id="veh217" type="veh_passenger" depart="246.44" departLane="best" from="1138592095#4" to="48052292#1"/>
    <trip id="veh218" type="veh_passenger" depart="247.58" departLane="best" from="-22853015#2" to="22852083"/>
    <trip id="veh219" type="veh_passenger" depart="248.71" departLane="best" from="22853114#1" to="1309007508"/>
    <trip id="veh221" type="veh_passenger" depart="250.98" departLane="best" from="-1192628764#3" to="-700240476"/>
    <trip id="veh222" type="veh_passenger" depart="252.12" departLane="best" from="-22853275#0" to="1081721293"/>
    <trip id="veh223" type="veh_passenger" depart="253.25" departLane="best" from="123299187" to="-22852123#0"/>
    <trip id="veh224" type="veh_passenger" depart="254.39" departLane="best" from="-22852720#2" to="-22852951#4"/>
    <trip id="veh225" type="veh_passenger" depart="255.53" departLane="best" from="22852189#0" to="-1338532721#0"/>
    <trip id="veh226" type="veh_passenger" depart="256.66" departLane="best" departSpeed="max" from="-792050007" to="151541148#1"/>
    <trip id="veh227" type="veh_passenger" depart="257.80" departLane="best" departSpeed="max" from="-792940499" to="-22853275#2"/>
    <trip id="veh229" type="veh_passenger" depart="260.07" departLane="best" departSpeed="max" from="1303042010" to="22852964#1"/>
    <trip id="veh230" type="veh_passenger" depart="261.20" departLane="best" from="38880022#2" to="22853613#1"/>
    <trip id="veh231" type="veh_passenger" depart="262.34" departLane="best" from="-72526582" to="-1126715627#2"/>
    <trip id="veh232" type="veh_passenger" depart="263.48" departLane="best" departSpeed="max" from="-48806919#1" to="22853473#6"/>
    <trip id="veh233" type="veh_passenger" depart="264.61" departLane="best" from="38829687#1" to="739701631#3"/>
    <trip id="veh235" type="veh_passenger" depart="266.88" departLane="best" from="1236029504" to="22850685"/>
    <trip id="veh236" type="veh_passenger" depart="268.02" departLane="best" departSpeed="max" from="-22852360" to="-22853518#2"/>
    <trip id="veh237" type="veh_passenger" depart="269.15" departLane="best" from="1105111950#2" to="-1190105151#0"/>
    <trip id="veh238" type="veh_passenger" depart="270.29" departLane="best" departSpeed="max" from="-48052848#2" to="22852610"/>
    <trip id="veh239" type="veh_passenger" depart="271.43" departLane="best" departSpeed="max" from="-792050002" to="22852447#4"/>
    <trip id="veh240" type="veh_passenger" depart="272.56" departLane="best" from="1137546142#1" to="-22851150#0"/>
    <trip id="veh241" type="veh_passenger" depart="273.70" departLane="best" from="152322065#12" to="996195660#1"/>