<additional>
    <!-- 
    Traffic signal disabled due to invalid junction ID
    <tlLogic id="actual_junction_id_here" type="actuated" programID="custom_program" offset="0">
        <phase duration="31" state="GGggrrrrGGggrrrr"/>
        <phase duration="5"  state="yyggrrrryyggrrrr"/>
        <phase duration="6"  state="rrGGrrrrrrGGrrrr"/>
        <phase duration="5"  state="rryyrrrrrryyrrrr"/>
        <phase duration="31" state="rrrrGGggrrrrGGgg"/>
        <phase duration="5"  state="rrrryyggrrrryygg"/>
        <phase duration="6"  state="rrrrrrGGrrrrrrGG"/>
        <phase duration="5"  state="rrrrrryyrrrrrryy"/>
    </tlLogic>
    -->
    
    <!-- Add more traffic lights as needed -->
</additional>