<additional>
    <vType id="normal_car" vClass="passenger" color="1,1,0" probability="0.7" priority="0" />
    <vType id="ambulance" vClass="emergency" color="1,1,1" guiShape="emergency" width="2.2" height="3.0" accel="3.0" decel="5.0" probability="0.1" priority="4" speedFactor="1.5" speedDev="0.1" laneChangeModel="LC2013" lcStrategic="100" lcSpeedGain="100" />
    <vType id="firetruck" vClass="emergency" color="1,0,0" guiShape="firebrigade" width="2.5" height="3.5" accel="2.8" decel="4.5" probability="0.1" priority="3" speedFactor="1.4" speedDev="0.1" laneChangeModel="LC2013" lcStrategic="80" lcSpeedGain="80" />
    <vType id="police" vClass="authority" color="0,0,1" guiShape="police" width="2.0" height="2.5" accel="3.2" decel="4.5" probability="0.1" priority="2" speedFactor="1.3" speedDev="0.1" laneChangeModel="LC2013" lcStrategic="60" lcSpeedGain="60" />
</additional>